&ABBREVIATIONS
&AMLPATH
&ARGS
&ATOOL
&CALL
&CODEPAGE
&COMMANDS
&CONV_WATCH_TO_AML
&DALINES
&DATA
&DATE FORMAT
&DELVAR
&DESCRIBE
&DO
&LIST
&REPEAT
&TO
&BY
&UNTIL
&WHILE
&ECHO
&ENABLE
&ENCODE
&FLUSHPOINTS
&FORMAT
&FULLSCREEN
&GETLASTPOINT
&GETPOINT
&GOTO
&IACRETURN
&IF
&THEN
&ELSE
&LABEL
&LISTCHAR
&LISTFILES
&LISTGLOBAL
&LISTLOCAL
&LISTPROGRAM
&LISTVAR
&MENU
&MENUPATH
&MESSAGES
&OTHERWISE
&PAUSE
&POPUP
&PT
&PUSHPOINT
&RETURN
&ROUTINE
&RUN
&RUNWATCH
&SELECT
&SETCHAR
&SETVAR
&SEVERITY
&SHOW
&STATION
&STOP
&SYSTEM
&TB
&TERMINAL
&TEST
&THREAD
&TRANSLATE
&TTY
&TYPE
&USAGE
&WATCH
&WHEN
&WORKSPACE
